&share
 wrf_core = 'ARW',
 max_dom = 1,
 start_date = '2018-12-18_00:00:00',
 end_date = '2018-12-23_00:00:00',
 interval_seconds = 10800,
 io_form_geogrid = 2,
/

&geogrid
 parent_id = 1,
 parent_grid_ratio = 1,
 i_parent_start = 1,
 j_parent_start = 1,
 e_we = 121,
 e_sn = 121,
 dx = 15000,
 dy = 15000,
 geog_data_res = 'default',
 map_proj = 'polar',
 ref_lat = 47.83,
 ref_lon = -127.3,
 truelat1 = 60.0,
 truelat2 = 90.0,
 stand_lon = -90.0,
 geog_data_path = '/glade/work/wrfhelp/WPS_GEOG/',
/

&ungrib
 out_format = 'WPS',
 prefix = 'FILE',
/

&metgrid
 fg_name = 'FILE',
 io_form_metgrid = 2,
/
